LTspice 24.0.12 for Windows
Circuit: * C:\Users\TCFH2003\Documents\!!PCB_Projects\ML605_Virtex6_EvalBoard_ExpansionCards\ML605_LPC_Board_wADC_DAC\DAC_differential_amp.asc
Start Time: Sat Aug 24 00:44:13 2024
solver = Normal
Maximum thread count: 20
tnom = 27
temp = 27
method = modified trap
u3:_u2:dd: Emission coefficient, N=0.01, too small, limited to 0.1
Direct Newton iteration failed to find .op point.  (Use ".option noopiter" to skip.)
Starting Gmin stepping
Gmin = 10
Gmin = 1.07374
Gmin = 0.115292
Gmin = 0.0123794
Gmin = 0.00132923
Gmin = 0.000142725
Gmin = 1.5325e-05
Gmin = 1.6455e-06
Gmin = 1.76685e-07
Gmin = 1.89714e-08
Gmin = 2.03704e-09
Gmin = 2.18725e-10
Gmin = 2.34854e-11
Gmin = 2.52173e-12
Gmin = 2.70769e-13
Gmin = 0
Gmin stepping succeeded in finding the operating point.

Ignoring empty pin current: Ix(u3:adj)
Ignoring empty pin current: Ix(u3:out_1)
Ignoring empty pin current: Ix(u3:adj)
Ignoring empty pin current: Ix(u3:out_1)
Total elapsed time: 0.067 seconds.

